Version 4
SHEET 1 880 680
WIRE 208 80 -112 80
WIRE 208 112 208 80
WIRE 64 176 0 176
WIRE 160 176 64 176
WIRE 352 176 272 176
WIRE 400 176 352 176
WIRE 400 192 400 176
WIRE 0 208 0 176
WIRE -112 288 -112 160
WIRE 0 288 -112 288
WIRE 208 288 208 240
WIRE 208 288 0 288
WIRE 400 288 400 272
WIRE 400 288 208 288
WIRE -112 320 -112 288
FLAG -112 320 0
FLAG 64 176 Vin
FLAG 352 176 Vout
SYMBOL inverter 208 176 R0
SYMATTR InstName X1
SYMBOL voltage -112 64 R0
WINDOW 123 0 0 Left 0
WINDOW 39 0 0 Left 0
SYMATTR InstName V1
SYMATTR Value 3.3
SYMBOL voltage 0 192 R0
WINDOW 123 0 0 Left 0
WINDOW 39 0 0 Left 0
SYMATTR InstName V2
SYMATTR Value PULSE(0 3.3 0 0 0 0.5e-6 1e-6)
TEXT -144 344 Left 2 !.tran 0 1e-5 0
